
This summary file was generated by TurbSim (from OpenFAST--128-NOTFOUND) on 23-Aug-2023 at 09:41:10.


Runtime Options:

**********  Random seed #1
-274505596  Random seed #2
         F  Output binary HH turbulence parameters?
         F  Output formatted turbulence parameters?
         T  Output AeroDyn HH files?
         F  Output AeroDyn FF files?
         F  Output BLADED FF files?
         F  Output tower data?
         F  Output HAWC FF files?
         F  Output formatted FF files?
         F  Output coherent turbulence time step file?
 0 -  NONE  IEC turbulence models scaled to exact specified standard deviation


Turbine/Model Specifications:

         5  Vertical grid-point matrix dimension
         5  Horizontal grid-point matrix dimension
     0.010  Time step [seconds]
   600.000  Analysis time [seconds]
   600.000  Usable output time [seconds]
    90.000  Hub height [m]
   162.000  Grid height [m]
   162.000  Grid width [m]
     0.000  Vertical flow angle [degrees]
     0.000  Horizontal flow angle [degrees]


Meteorological Boundary Conditions:

    IECVKM  IEC von Karman spectral model
         1  IEC standard: IEC 61400-1 Ed. 3: 2005
         B  IEC turbulence characteristic
       NTM  IEC Normal Turbulence Model
       N/A  IEC Extreme Turbulence Model (ETM) "c" parameter [m/s]
       PL   Wind profile type
    90.000  Reference height [m]
    20.000  Reference wind speed [m/s]
       N/A  Jet height [m]
     0.200  Power law exponent
     0.030  Surface roughness length [m]


Non-IEC Meteorological Boundary Conditions:

       N/A  Site latitude [degrees]
       N/A  Gradient Richardson number
       N/A  Friction or shear velocity [m/s]
       N/A  Mixing layer depth [m]
       N/A  Mean hub u'w' Reynolds stress
       N/A  Mean hub u'v' Reynolds stress
       N/A  Mean hub v'w' Reynolds stress


Spatial Coherence Models:

       IEC  u-component coherence model
      NONE  v-component coherence model
      NONE  w-component coherence model
(   12.000, 0.353E-03)  u-component coherence parameters
                   N/A  v-component coherence parameters
                   N/A  w-component coherence parameters
       N/A  Coherence exponent


You have requested that the following file(s) be generated:

   ./turbsim/TurbSim_5.hh  (AeroDyn hub-height file)


Turbulence Simulation Scaling Parameter Summary:

   Turbulence model used                            =  IEC von Karman
   Turbulence characteristic                        =  B
   IEC turbulence type                              =  Normal Turbulence Model
   IEC standard                                     =  IEC 61400-1 Ed. 3: 2005
   Mean wind speed at hub height                    =   20.000 m/s
   Expected value of turbulence intensity at 15 m/s =   14.000%
   Characteristic value of standard deviation       =    2.884 m/s
   Turbulence scale                                 =   42.000 m
   Isotropic integral scale                         =  147.000 m
   Characteristic value of hub turbulence intensity =   14.420%
   Gradient Richardson number                       =    0.000

   Wind profile type                                =  Power law
   Power law exponent                               =    0.200
   Mean shear across rotor disk                     =    0.062 (m/s)/m
   Assumed rotor diameter                           =  162.000 m
   Surface roughness length                         =    0.030 m

   Nyquist frequency of turbulent wind field        =   50.000 Hz

   Number of time steps in the FFT                  =    60000
   Number of time steps output                      =    60000
   Number of points simulated                       =       25


Mean Flow Angles:

   Vertical   =   0.0 degrees
   Horizontal =   0.0 degrees

Mean Wind Speed Profile:

   Height    Wind Speed   Horizontal Angle  Vertical Angle  U-comp (X)   V-comp (Y)   W-comp (Z)
     (m)        (m/s)         (degrees)       (degrees)       (m/s)        (m/s)        (m/s)   
   ------    ----------   ----------------  --------------  ----------   ----------   ----------
    171.0       22.74            0.00            0.00         22.74         0.00         0.00
    130.5       21.54            0.00            0.00         21.54         0.00         0.00
     90.0       20.00            0.00            0.00         20.00         0.00         0.00
     49.5       17.75            0.00            0.00         17.75         0.00         0.00
      9.0       12.62            0.00            0.00         12.62         0.00         0.00


Harvested Random Seeds after Generation of the Random Numbers:

  -1155678495 Harvested seed # 1
   -813715524 Harvested seed # 2
  -2104478096 Harvested seed # 3
  -1629679123 Harvested seed # 4
   1121735446 Harvested seed # 5
    533461792 Harvested seed # 6
  -1992566861 Harvested seed # 7
   1322828512 Harvested seed # 8


Hub-Height Simulated Turbulence Statistical Summary:

   Type of Wind        Min (m/s)   Mean (m/s)    Max (m/s)  Sigma (m/s)       TI (%)
   ----------------    ---------   ----------    ---------  -----------       ------
   Longitudinal (u)        11.56        20.00        31.97        2.887       14.436
   Lateral (v)            -10.28         0.00        10.64        2.855       14.277
   Vertical (w)            -9.03         0.00        13.72        2.855       14.277
   U component             11.56        20.00        31.97        2.887       14.436
   V component            -10.28         0.00        10.64        2.855       14.277
   W component             -9.03         0.00        13.72        2.855       14.277
   Horizontal (U&V)        11.87        20.20        32.00        2.885       14.281
   Total                   11.89        20.41        32.00        2.868       14.052

                       Min Reynolds     Mean Reynolds    Max Reynolds    Correlation
   Product             Stress (m/s)^2   Stress (m/s)^2   Stress (m/s)^2  Coefficient
   ----------------    --------------   --------------   --------------  -----------
   u'w'                    -54.614            -1.232            35.969        -0.149
   u'v'                    -45.564             0.496            69.575         0.060
   v'w'                    -59.385            -0.193            46.078        -0.024


   Friction Velocity (Ustar)  =      1.110 m/s
   Maximum Instantaneous TKE  =     98.257 (m/s)^2
   Maximum Instantaneous CTKE =     47.587 (m/s)^2


Grid Point Variance Summary:

   Y-coord  -81.00  -40.50    0.00   40.50   81.00

   Height   Standard deviation at grid points for the u component:
   171.00    2.668   2.802   2.744   2.889   2.951
   130.50    2.767   2.851   2.922   2.825   2.886
    90.00    2.792   2.918   2.887   2.831   2.621
    49.50    2.695   2.598   2.797   2.897   2.840
     9.00    2.841   2.984   3.056   2.992   2.765

   Height   Standard deviation at grid points for the v component:
   171.00    2.855   2.855   2.855   2.855   2.855
   130.50    2.855   2.855   2.855   2.855   2.855
    90.00    2.855   2.855   2.855   2.855   2.855
    49.50    2.855   2.855   2.855   2.855   2.855
     9.00    2.855   2.855   2.855   2.855   2.855

   Height   Standard deviation at grid points for the w component:
   171.00    2.855   2.855   2.855   2.855   2.855
   130.50    2.855   2.855   2.855   2.855   2.855
    90.00    2.855   2.855   2.855   2.855   2.855
    49.50    2.855   2.855   2.855   2.855   2.855
     9.00    2.855   2.855   2.855   2.855   2.855

   Mean standard deviation across all grid points:
      u component:    2.833 m/s
      v component:    2.855 m/s
      w component:    2.855 m/s


Processing complete.  0.79097 CPU seconds used.
