
This summary file was generated by TurbSim (from OpenFAST--128-NOTFOUND) on 23-Aug-2023 at 09:41:11.


Runtime Options:

 670828913  Random seed #1
1287356362  Random seed #2
         F  Output binary HH turbulence parameters?
         F  Output formatted turbulence parameters?
         T  Output AeroDyn HH files?
         F  Output AeroDyn FF files?
         F  Output BLADED FF files?
         F  Output tower data?
         F  Output HAWC FF files?
         F  Output formatted FF files?
         F  Output coherent turbulence time step file?
 0 -  NONE  IEC turbulence models scaled to exact specified standard deviation


Turbine/Model Specifications:

         5  Vertical grid-point matrix dimension
         5  Horizontal grid-point matrix dimension
     0.010  Time step [seconds]
   600.000  Analysis time [seconds]
   600.000  Usable output time [seconds]
    90.000  Hub height [m]
   162.000  Grid height [m]
   162.000  Grid width [m]
     0.000  Vertical flow angle [degrees]
     0.000  Horizontal flow angle [degrees]


Meteorological Boundary Conditions:

    IECVKM  IEC von Karman spectral model
         1  IEC standard: IEC 61400-1 Ed. 3: 2005
         B  IEC turbulence characteristic
       NTM  IEC Normal Turbulence Model
       N/A  IEC Extreme Turbulence Model (ETM) "c" parameter [m/s]
       PL   Wind profile type
    90.000  Reference height [m]
    20.000  Reference wind speed [m/s]
       N/A  Jet height [m]
     0.200  Power law exponent
     0.030  Surface roughness length [m]


Non-IEC Meteorological Boundary Conditions:

       N/A  Site latitude [degrees]
       N/A  Gradient Richardson number
       N/A  Friction or shear velocity [m/s]
       N/A  Mixing layer depth [m]
       N/A  Mean hub u'w' Reynolds stress
       N/A  Mean hub u'v' Reynolds stress
       N/A  Mean hub v'w' Reynolds stress


Spatial Coherence Models:

       IEC  u-component coherence model
      NONE  v-component coherence model
      NONE  w-component coherence model
(   12.000, 0.353E-03)  u-component coherence parameters
                   N/A  v-component coherence parameters
                   N/A  w-component coherence parameters
       N/A  Coherence exponent


You have requested that the following file(s) be generated:

   ./turbsim/TurbSim_16.hh  (AeroDyn hub-height file)


Turbulence Simulation Scaling Parameter Summary:

   Turbulence model used                            =  IEC von Karman
   Turbulence characteristic                        =  B
   IEC turbulence type                              =  Normal Turbulence Model
   IEC standard                                     =  IEC 61400-1 Ed. 3: 2005
   Mean wind speed at hub height                    =   20.000 m/s
   Expected value of turbulence intensity at 15 m/s =   14.000%
   Characteristic value of standard deviation       =    2.884 m/s
   Turbulence scale                                 =   42.000 m
   Isotropic integral scale                         =  147.000 m
   Characteristic value of hub turbulence intensity =   14.420%
   Gradient Richardson number                       =    0.000

   Wind profile type                                =  Power law
   Power law exponent                               =    0.200
   Mean shear across rotor disk                     =    0.062 (m/s)/m
   Assumed rotor diameter                           =  162.000 m
   Surface roughness length                         =    0.030 m

   Nyquist frequency of turbulent wind field        =   50.000 Hz

   Number of time steps in the FFT                  =    60000
   Number of time steps output                      =    60000
   Number of points simulated                       =       25


Mean Flow Angles:

   Vertical   =   0.0 degrees
   Horizontal =   0.0 degrees

Mean Wind Speed Profile:

   Height    Wind Speed   Horizontal Angle  Vertical Angle  U-comp (X)   V-comp (Y)   W-comp (Z)
     (m)        (m/s)         (degrees)       (degrees)       (m/s)        (m/s)        (m/s)   
   ------    ----------   ----------------  --------------  ----------   ----------   ----------
    171.0       22.74            0.00            0.00         22.74         0.00         0.00
    130.5       21.54            0.00            0.00         21.54         0.00         0.00
     90.0       20.00            0.00            0.00         20.00         0.00         0.00
     49.5       17.75            0.00            0.00         17.75         0.00         0.00
      9.0       12.62            0.00            0.00         12.62         0.00         0.00


Harvested Random Seeds after Generation of the Random Numbers:

   -561812351 Harvested seed # 1
  -1293585599 Harvested seed # 2
   1842021267 Harvested seed # 3
  -1311030562 Harvested seed # 4
   1907535942 Harvested seed # 5
    201353849 Harvested seed # 6
  -1325692159 Harvested seed # 7
   -736813496 Harvested seed # 8


Hub-Height Simulated Turbulence Statistical Summary:

   Type of Wind        Min (m/s)   Mean (m/s)    Max (m/s)  Sigma (m/s)       TI (%)
   ----------------    ---------   ----------    ---------  -----------       ------
   Longitudinal (u)        10.94        20.00        31.28        2.559       12.793
   Lateral (v)            -10.03        -0.00        12.76        2.855       14.277
   Vertical (w)           -10.16         0.00         8.90        2.855       14.277
   U component             10.94        20.00        31.28        2.559       12.793
   V component            -10.03        -0.00        12.76        2.855       14.277
   W component            -10.16         0.00         8.90        2.855       14.277
   Horizontal (U&V)        11.14        20.20        31.34        2.546       12.603
   Total                   11.15        20.40        31.38        2.563       12.561

                       Min Reynolds     Mean Reynolds    Max Reynolds    Correlation
   Product             Stress (m/s)^2   Stress (m/s)^2   Stress (m/s)^2  Coefficient
   ----------------    --------------   --------------   --------------  -----------
   u'w'                    -57.725             0.172            37.536         0.024
   u'v'                    -45.415            -0.111            44.450        -0.015
   v'w'                    -43.495             1.524            84.842         0.187


   Friction Velocity (Ustar)  =      0.415 m/s
   Maximum Instantaneous TKE  =     99.195 (m/s)^2
   Maximum Instantaneous CTKE =     46.203 (m/s)^2


Grid Point Variance Summary:

   Y-coord  -81.00  -40.50    0.00   40.50   81.00

   Height   Standard deviation at grid points for the u component:
   171.00    3.046   3.075   2.882   3.199   3.034
   130.50    3.197   2.994   2.840   2.918   3.063
    90.00    2.930   2.902   2.559   2.532   2.800
    49.50    2.831   2.852   2.668   2.665   3.032
     9.00    2.841   2.645   2.619   2.773   2.929

   Height   Standard deviation at grid points for the v component:
   171.00    2.855   2.855   2.855   2.855   2.855
   130.50    2.855   2.855   2.855   2.855   2.855
    90.00    2.855   2.855   2.855   2.855   2.855
    49.50    2.855   2.855   2.855   2.855   2.855
     9.00    2.855   2.855   2.855   2.855   2.855

   Height   Standard deviation at grid points for the w component:
   171.00    2.855   2.855   2.855   2.855   2.855
   130.50    2.855   2.855   2.855   2.855   2.855
    90.00    2.855   2.855   2.855   2.855   2.855
    49.50    2.855   2.855   2.855   2.855   2.855
     9.00    2.855   2.855   2.855   2.855   2.855

   Mean standard deviation across all grid points:
      u component:    2.873 m/s
      v component:    2.855 m/s
      w component:    2.855 m/s


Processing complete.  0.77349 CPU seconds used.
