
 **************************************************************************************************
 TurbSim

 Copyright (C) 2023 National Renewable Energy Laboratory
 Copyright (C) 2023 Envision Energy USA LTD

 This program is licensed under Apache License Version 2.0 and comes with ABSOLUTELY NO WARRANTY.
 See the "LICENSE" file distributed with this software for details.
 **************************************************************************************************

  Running TurbSim (from OpenFAST--128-NOTFOUND)


  Reading the input file "./turbsim/TurbSim_17.inp".
  WARNING:   The random number generator in use differs from the original code provided by NREL.
  This pRNG uses 8 seeds instead of the 2 in the TurbSim input file.
  WARNING:   The random number generator in use differs from the original code provided by NREL.
  This pRNG uses 8 seeds instead of the 2 in the TurbSim input file.
  Calculating the spectral and transfer function matrices:
     u-component matrices (IEC coherence method)
     v-component matrices (identity coherence)
     w-component matrices (identity coherence)
  Generating time series for all points:
     u-component
     v-component
     w-component
  Computing hub-height statistics
  Writing statistics to summary file
  Hub-height AeroDyn data were written to "./turbsim/TurbSim_17.hh"

  Processing complete.  0.77132 CPU seconds used.

  TurbSim terminated normally.


 **************************************************************************************************
 TurbSim

 Copyright (C) 2023 National Renewable Energy Laboratory
 Copyright (C) 2023 Envision Energy USA LTD

 This program is licensed under Apache License Version 2.0 and comes with ABSOLUTELY NO WARRANTY.
 See the "LICENSE" file distributed with this software for details.
 **************************************************************************************************

  Running TurbSim (from OpenFAST--128-NOTFOUND)


  Reading the input file "./turbsim/TurbSim_17.inp".
  WARNING:   The random number generator in use differs from the original code provided by NREL.
  This pRNG uses 8 seeds instead of the 2 in the TurbSim input file.
  WARNING:   The random number generator in use differs from the original code provided by NREL.
  This pRNG uses 8 seeds instead of the 2 in the TurbSim input file.
  Calculating the spectral and transfer function matrices:
     u-component matrices (IEC coherence method)
     v-component matrices (identity coherence)
     w-component matrices (identity coherence)
  Generating time series for all points:
     u-component
     v-component
     w-component
  Computing hub-height statistics
  Writing statistics to summary file
  Hub-height AeroDyn data were written to "./turbsim/TurbSim_17.hh"

  Processing complete.  0.77113 CPU seconds used.

  TurbSim terminated normally.


 **************************************************************************************************
 TurbSim

 Copyright (C) 2023 National Renewable Energy Laboratory
 Copyright (C) 2023 Envision Energy USA LTD

 This program is licensed under Apache License Version 2.0 and comes with ABSOLUTELY NO WARRANTY.
 See the "LICENSE" file distributed with this software for details.
 **************************************************************************************************

  Running TurbSim (from OpenFAST--128-NOTFOUND)


  Reading the input file "./turbsim/TurbSim_17.inp".
  WARNING:   The random number generator in use differs from the original code provided by NREL.
  This pRNG uses 8 seeds instead of the 2 in the TurbSim input file.
  WARNING:   The random number generator in use differs from the original code provided by NREL.
  This pRNG uses 8 seeds instead of the 2 in the TurbSim input file.
  Calculating the spectral and transfer function matrices:
     u-component matrices (IEC coherence method)
     v-component matrices (identity coherence)
     w-component matrices (identity coherence)
  Generating time series for all points:
     u-component
     v-component
     w-component
  Computing hub-height statistics
  Writing statistics to summary file
  Hub-height AeroDyn data were written to "./turbsim/TurbSim_17.hh"

  Processing complete.  0.77185 CPU seconds used.

  TurbSim terminated normally.


 **************************************************************************************************
 TurbSim

 Copyright (C) 2023 National Renewable Energy Laboratory
 Copyright (C) 2023 Envision Energy USA LTD

 This program is licensed under Apache License Version 2.0 and comes with ABSOLUTELY NO WARRANTY.
 See the "LICENSE" file distributed with this software for details.
 **************************************************************************************************

  Running TurbSim (from OpenFAST--128-NOTFOUND)


  Reading the input file "./turbsim/TurbSim_17.inp".
  WARNING:   The random number generator in use differs from the original code provided by NREL.
  This pRNG uses 8 seeds instead of the 2 in the TurbSim input file.
  WARNING:   The random number generator in use differs from the original code provided by NREL.
  This pRNG uses 8 seeds instead of the 2 in the TurbSim input file.
  Calculating the spectral and transfer function matrices:
     u-component matrices (IEC coherence method)
     v-component matrices (identity coherence)
     w-component matrices (identity coherence)
  Generating time series for all points:
     u-component
     v-component
     w-component
  Computing hub-height statistics
  Writing statistics to summary file
  Hub-height AeroDyn data were written to "./turbsim/TurbSim_17.hh"

  Processing complete.  0.7745 CPU seconds used.

  TurbSim terminated normally.


 **************************************************************************************************
 TurbSim

 Copyright (C) 2023 National Renewable Energy Laboratory
 Copyright (C) 2023 Envision Energy USA LTD

 This program is licensed under Apache License Version 2.0 and comes with ABSOLUTELY NO WARRANTY.
 See the "LICENSE" file distributed with this software for details.
 **************************************************************************************************

  Running TurbSim (from OpenFAST--128-NOTFOUND)


  Reading the input file "./turbsim/TurbSim_17.inp".
  WARNING:   The random number generator in use differs from the original code provided by NREL.
  This pRNG uses 8 seeds instead of the 2 in the TurbSim input file.
  WARNING:   The random number generator in use differs from the original code provided by NREL.
  This pRNG uses 8 seeds instead of the 2 in the TurbSim input file.
  Calculating the spectral and transfer function matrices:
     u-component matrices (IEC coherence method)
     v-component matrices (identity coherence)
     w-component matrices (identity coherence)
  Generating time series for all points:
     u-component
     v-component
     w-component
  Computing hub-height statistics
  Writing statistics to summary file
  Hub-height AeroDyn data were written to "./turbsim/TurbSim_17.hh"

  Processing complete.  0.77023 CPU seconds used.

  TurbSim terminated normally.


 **************************************************************************************************
 TurbSim

 Copyright (C) 2023 National Renewable Energy Laboratory
 Copyright (C) 2023 Envision Energy USA LTD

 This program is licensed under Apache License Version 2.0 and comes with ABSOLUTELY NO WARRANTY.
 See the "LICENSE" file distributed with this software for details.
 **************************************************************************************************

  Running TurbSim (from OpenFAST--128-NOTFOUND)


  Reading the input file "./turbsim/TurbSim_17.inp".
  WARNING:   The random number generator in use differs from the original code provided by NREL.
  This pRNG uses 8 seeds instead of the 2 in the TurbSim input file.
  WARNING:   The random number generator in use differs from the original code provided by NREL.
  This pRNG uses 8 seeds instead of the 2 in the TurbSim input file.
  Calculating the spectral and transfer function matrices:
     u-component matrices (IEC coherence method)
     v-component matrices (identity coherence)
     w-component matrices (identity coherence)
  Generating time series for all points:
     u-component
     v-component
     w-component
  Computing hub-height statistics
  Writing statistics to summary file
  Hub-height AeroDyn data were written to "./turbsim/TurbSim_17.hh"

  Processing complete.  0.77313 CPU seconds used.

  TurbSim terminated normally.


 **************************************************************************************************
 TurbSim

 Copyright (C) 2023 National Renewable Energy Laboratory
 Copyright (C) 2023 Envision Energy USA LTD

 This program is licensed under Apache License Version 2.0 and comes with ABSOLUTELY NO WARRANTY.
 See the "LICENSE" file distributed with this software for details.
 **************************************************************************************************

  Running TurbSim (from OpenFAST--128-NOTFOUND)


  Reading the input file "./turbsim/TurbSim_17.inp".
  WARNING:   The random number generator in use differs from the original code provided by NREL.
  This pRNG uses 8 seeds instead of the 2 in the TurbSim input file.
  WARNING:   The random number generator in use differs from the original code provided by NREL.
  This pRNG uses 8 seeds instead of the 2 in the TurbSim input file.
  Calculating the spectral and transfer function matrices:
     u-component matrices (IEC coherence method)
     v-component matrices (identity coherence)
     w-component matrices (identity coherence)
  Generating time series for all points:
     u-component
     v-component
     w-component
  Computing hub-height statistics
  Writing statistics to summary file
  Hub-height AeroDyn data were written to "./turbsim/TurbSim_17.hh"

  Processing complete.  0.79286 CPU seconds used.

  TurbSim terminated normally.


 **************************************************************************************************
 TurbSim

 Copyright (C) 2023 National Renewable Energy Laboratory
 Copyright (C) 2023 Envision Energy USA LTD

 This program is licensed under Apache License Version 2.0 and comes with ABSOLUTELY NO WARRANTY.
 See the "LICENSE" file distributed with this software for details.
 **************************************************************************************************

  Running TurbSim (from OpenFAST--128-NOTFOUND)


  Reading the input file "./turbsim/TurbSim_17.inp".
  WARNING:   The random number generator in use differs from the original code provided by NREL.
  This pRNG uses 8 seeds instead of the 2 in the TurbSim input file.
  WARNING:   The random number generator in use differs from the original code provided by NREL.
  This pRNG uses 8 seeds instead of the 2 in the TurbSim input file.
  Calculating the spectral and transfer function matrices:
     u-component matrices (IEC coherence method)
     v-component matrices (identity coherence)
     w-component matrices (identity coherence)
  Generating time series for all points:
     u-component
     v-component
     w-component
  Computing hub-height statistics
  Writing statistics to summary file
  Hub-height AeroDyn data were written to "./turbsim/TurbSim_17.hh"

  Processing complete.  0.77167 CPU seconds used.

  TurbSim terminated normally.


 **************************************************************************************************
 TurbSim

 Copyright (C) 2023 National Renewable Energy Laboratory
 Copyright (C) 2023 Envision Energy USA LTD

 This program is licensed under Apache License Version 2.0 and comes with ABSOLUTELY NO WARRANTY.
 See the "LICENSE" file distributed with this software for details.
 **************************************************************************************************

  Running TurbSim (from OpenFAST--128-NOTFOUND)


  Reading the input file "./turbsim/TurbSim_17.inp".
  WARNING:   The random number generator in use differs from the original code provided by NREL.
  This pRNG uses 8 seeds instead of the 2 in the TurbSim input file.
  WARNING:   The random number generator in use differs from the original code provided by NREL.
  This pRNG uses 8 seeds instead of the 2 in the TurbSim input file.
  Calculating the spectral and transfer function matrices:
     u-component matrices (IEC coherence method)
     v-component matrices (identity coherence)
     w-component matrices (identity coherence)
  Generating time series for all points:
     u-component
     v-component
     w-component
  Computing hub-height statistics
  Writing statistics to summary file
  Hub-height AeroDyn data were written to "./turbsim/TurbSim_17.hh"

  Processing complete.  0.77119 CPU seconds used.

  TurbSim terminated normally.


 **************************************************************************************************
 TurbSim

 Copyright (C) 2023 National Renewable Energy Laboratory
 Copyright (C) 2023 Envision Energy USA LTD

 This program is licensed under Apache License Version 2.0 and comes with ABSOLUTELY NO WARRANTY.
 See the "LICENSE" file distributed with this software for details.
 **************************************************************************************************

  Running TurbSim (from OpenFAST--128-NOTFOUND)


  Reading the input file "./turbsim/TurbSim_17.inp".
  WARNING:   The random number generator in use differs from the original code provided by NREL.
  This pRNG uses 8 seeds instead of the 2 in the TurbSim input file.
  WARNING:   The random number generator in use differs from the original code provided by NREL.
  This pRNG uses 8 seeds instead of the 2 in the TurbSim input file.
  Calculating the spectral and transfer function matrices:
     u-component matrices (IEC coherence method)
     v-component matrices (identity coherence)
     w-component matrices (identity coherence)
  Generating time series for all points:
     u-component
     v-component
     w-component
  Computing hub-height statistics
  Writing statistics to summary file
  Hub-height AeroDyn data were written to "./turbsim/TurbSim_17.hh"

  Processing complete.  0.78731 CPU seconds used.

  TurbSim terminated normally.


 **************************************************************************************************
 TurbSim

 Copyright (C) 2023 National Renewable Energy Laboratory
 Copyright (C) 2023 Envision Energy USA LTD

 This program is licensed under Apache License Version 2.0 and comes with ABSOLUTELY NO WARRANTY.
 See the "LICENSE" file distributed with this software for details.
 **************************************************************************************************

  Running TurbSim (from OpenFAST--128-NOTFOUND)


  Reading the input file "./turbsim/TurbSim_17.inp".
  WARNING:   The random number generator in use differs from the original code provided by NREL.
  This pRNG uses 8 seeds instead of the 2 in the TurbSim input file.
  WARNING:   The random number generator in use differs from the original code provided by NREL.
  This pRNG uses 8 seeds instead of the 2 in the TurbSim input file.
  Calculating the spectral and transfer function matrices:
     u-component matrices (IEC coherence method)
     v-component matrices (identity coherence)
     w-component matrices (identity coherence)
  Generating time series for all points:
     u-component
     v-component
     w-component
  Computing hub-height statistics
  Writing statistics to summary file
  Hub-height AeroDyn data were written to "./turbsim/TurbSim_17.hh"

  Processing complete.  0.76492 CPU seconds used.

  TurbSim terminated normally.


 **************************************************************************************************
 TurbSim

 Copyright (C) 2023 National Renewable Energy Laboratory
 Copyright (C) 2023 Envision Energy USA LTD

 This program is licensed under Apache License Version 2.0 and comes with ABSOLUTELY NO WARRANTY.
 See the "LICENSE" file distributed with this software for details.
 **************************************************************************************************

  Running TurbSim (from OpenFAST--128-NOTFOUND)


  Reading the input file "./turbsim/TurbSim_17.inp".
  WARNING:   The random number generator in use differs from the original code provided by NREL.
  This pRNG uses 8 seeds instead of the 2 in the TurbSim input file.
  WARNING:   The random number generator in use differs from the original code provided by NREL.
  This pRNG uses 8 seeds instead of the 2 in the TurbSim input file.
  Calculating the spectral and transfer function matrices:
     u-component matrices (IEC coherence method)
     v-component matrices (identity coherence)
     w-component matrices (identity coherence)
  Generating time series for all points:
     u-component
     v-component
     w-component
  Computing hub-height statistics
  Writing statistics to summary file
  Hub-height AeroDyn data were written to "./turbsim/TurbSim_17.hh"

  Processing complete.  0.76887 CPU seconds used.

  TurbSim terminated normally.


 **************************************************************************************************
 TurbSim

 Copyright (C) 2023 National Renewable Energy Laboratory
 Copyright (C) 2023 Envision Energy USA LTD

 This program is licensed under Apache License Version 2.0 and comes with ABSOLUTELY NO WARRANTY.
 See the "LICENSE" file distributed with this software for details.
 **************************************************************************************************

  Running TurbSim (from OpenFAST--128-NOTFOUND)


  Reading the input file "./turbsim/TurbSim_17.inp".
  WARNING:   The random number generator in use differs from the original code provided by NREL.
  This pRNG uses 8 seeds instead of the 2 in the TurbSim input file.
  WARNING:   The random number generator in use differs from the original code provided by NREL.
  This pRNG uses 8 seeds instead of the 2 in the TurbSim input file.
  Calculating the spectral and transfer function matrices:
     u-component matrices (IEC coherence method)
     v-component matrices (identity coherence)
     w-component matrices (identity coherence)
  Generating time series for all points:
     u-component
     v-component
     w-component
  Computing hub-height statistics
  Writing statistics to summary file
  Hub-height AeroDyn data were written to "./turbsim/TurbSim_17.hh"

  Processing complete.  0.79829 CPU seconds used.

  TurbSim terminated normally.


 **************************************************************************************************
 TurbSim

 Copyright (C) 2023 National Renewable Energy Laboratory
 Copyright (C) 2023 Envision Energy USA LTD

 This program is licensed under Apache License Version 2.0 and comes with ABSOLUTELY NO WARRANTY.
 See the "LICENSE" file distributed with this software for details.
 **************************************************************************************************

  Running TurbSim (from OpenFAST--128-NOTFOUND)


  Reading the input file "./turbsim/TurbSim_17.inp".
  WARNING:   The random number generator in use differs from the original code provided by NREL.
  This pRNG uses 8 seeds instead of the 2 in the TurbSim input file.
  WARNING:   The random number generator in use differs from the original code provided by NREL.
  This pRNG uses 8 seeds instead of the 2 in the TurbSim input file.
  Calculating the spectral and transfer function matrices:
     u-component matrices (IEC coherence method)
     v-component matrices (identity coherence)
     w-component matrices (identity coherence)
  Generating time series for all points:
     u-component
     v-component
     w-component
  Computing hub-height statistics
  Writing statistics to summary file
  Hub-height AeroDyn data were written to "./turbsim/TurbSim_17.hh"

  Processing complete.  0.79441 CPU seconds used.

  TurbSim terminated normally.


 **************************************************************************************************
 TurbSim

 Copyright (C) 2023 National Renewable Energy Laboratory
 Copyright (C) 2023 Envision Energy USA LTD

 This program is licensed under Apache License Version 2.0 and comes with ABSOLUTELY NO WARRANTY.
 See the "LICENSE" file distributed with this software for details.
 **************************************************************************************************

  Running TurbSim (from OpenFAST--128-NOTFOUND)


  Reading the input file "./turbsim/TurbSim_17.inp".
  WARNING:   The random number generator in use differs from the original code provided by NREL.
  This pRNG uses 8 seeds instead of the 2 in the TurbSim input file.
  WARNING:   The random number generator in use differs from the original code provided by NREL.
  This pRNG uses 8 seeds instead of the 2 in the TurbSim input file.
  Calculating the spectral and transfer function matrices:
     u-component matrices (IEC coherence method)
     v-component matrices (identity coherence)
     w-component matrices (identity coherence)
  Generating time series for all points:
     u-component
     v-component
     w-component
  Computing hub-height statistics
  Writing statistics to summary file
  Hub-height AeroDyn data were written to "./turbsim/TurbSim_17.hh"

  Processing complete.  0.79687 CPU seconds used.

  TurbSim terminated normally.


 **************************************************************************************************
 TurbSim

 Copyright (C) 2023 National Renewable Energy Laboratory
 Copyright (C) 2023 Envision Energy USA LTD

 This program is licensed under Apache License Version 2.0 and comes with ABSOLUTELY NO WARRANTY.
 See the "LICENSE" file distributed with this software for details.
 **************************************************************************************************

  Running TurbSim (from OpenFAST--128-NOTFOUND)


  Reading the input file "./turbsim/TurbSim_17.inp".
  WARNING:   The random number generator in use differs from the original code provided by NREL.
  This pRNG uses 8 seeds instead of the 2 in the TurbSim input file.
  WARNING:   The random number generator in use differs from the original code provided by NREL.
  This pRNG uses 8 seeds instead of the 2 in the TurbSim input file.
  Calculating the spectral and transfer function matrices:
     u-component matrices (IEC coherence method)
     v-component matrices (identity coherence)
     w-component matrices (identity coherence)
  Generating time series for all points:
     u-component
     v-component
     w-component
  Computing hub-height statistics
  Writing statistics to summary file
  Hub-height AeroDyn data were written to "./turbsim/TurbSim_17.hh"

  Processing complete.  0.79673 CPU seconds used.

  TurbSim terminated normally.


 **************************************************************************************************
 TurbSim

 Copyright (C) 2023 National Renewable Energy Laboratory
 Copyright (C) 2023 Envision Energy USA LTD

 This program is licensed under Apache License Version 2.0 and comes with ABSOLUTELY NO WARRANTY.
 See the "LICENSE" file distributed with this software for details.
 **************************************************************************************************

  Running TurbSim (from OpenFAST--128-NOTFOUND)


  Reading the input file "./turbsim/TurbSim_17.inp".
  WARNING:   The random number generator in use differs from the original code provided by NREL.
  This pRNG uses 8 seeds instead of the 2 in the TurbSim input file.
  WARNING:   The random number generator in use differs from the original code provided by NREL.
  This pRNG uses 8 seeds instead of the 2 in the TurbSim input file.
  Calculating the spectral and transfer function matrices:
     u-component matrices (IEC coherence method)
     v-component matrices (identity coherence)
     w-component matrices (identity coherence)
  Generating time series for all points:
     u-component
     v-component
     w-component
  Computing hub-height statistics
  Writing statistics to summary file
  Hub-height AeroDyn data were written to "./turbsim/TurbSim_17.hh"

  Processing complete.  0.8031 CPU seconds used.

  TurbSim terminated normally.


 **************************************************************************************************
 TurbSim

 Copyright (C) 2023 National Renewable Energy Laboratory
 Copyright (C) 2023 Envision Energy USA LTD

 This program is licensed under Apache License Version 2.0 and comes with ABSOLUTELY NO WARRANTY.
 See the "LICENSE" file distributed with this software for details.
 **************************************************************************************************

  Running TurbSim (from OpenFAST--128-NOTFOUND)


  Reading the input file "./turbsim/TurbSim_17.inp".
  WARNING:   The random number generator in use differs from the original code provided by NREL.
  This pRNG uses 8 seeds instead of the 2 in the TurbSim input file.
  WARNING:   The random number generator in use differs from the original code provided by NREL.
  This pRNG uses 8 seeds instead of the 2 in the TurbSim input file.
  Calculating the spectral and transfer function matrices:
     u-component matrices (IEC coherence method)
     v-component matrices (identity coherence)
     w-component matrices (identity coherence)
  Generating time series for all points:
     u-component
     v-component
     w-component
  Computing hub-height statistics
  Writing statistics to summary file
  Hub-height AeroDyn data were written to "./turbsim/TurbSim_17.hh"

  Processing complete.  0.7935 CPU seconds used.

  TurbSim terminated normally.


 **************************************************************************************************
 TurbSim

 Copyright (C) 2023 National Renewable Energy Laboratory
 Copyright (C) 2023 Envision Energy USA LTD

 This program is licensed under Apache License Version 2.0 and comes with ABSOLUTELY NO WARRANTY.
 See the "LICENSE" file distributed with this software for details.
 **************************************************************************************************

  Running TurbSim (from OpenFAST--128-NOTFOUND)


  Reading the input file "./turbsim/TurbSim_17.inp".
  WARNING:   The random number generator in use differs from the original code provided by NREL.
  This pRNG uses 8 seeds instead of the 2 in the TurbSim input file.
  WARNING:   The random number generator in use differs from the original code provided by NREL.
  This pRNG uses 8 seeds instead of the 2 in the TurbSim input file.
  Calculating the spectral and transfer function matrices:
     u-component matrices (IEC coherence method)
     v-component matrices (identity coherence)
     w-component matrices (identity coherence)
  Generating time series for all points:
     u-component
     v-component
     w-component
  Computing hub-height statistics
  Writing statistics to summary file
  Hub-height AeroDyn data were written to "./turbsim/TurbSim_17.hh"

  Processing complete.  0.79632 CPU seconds used.

  TurbSim terminated normally.


 **************************************************************************************************
 TurbSim

 Copyright (C) 2023 National Renewable Energy Laboratory
 Copyright (C) 2023 Envision Energy USA LTD

 This program is licensed under Apache License Version 2.0 and comes with ABSOLUTELY NO WARRANTY.
 See the "LICENSE" file distributed with this software for details.
 **************************************************************************************************

  Running TurbSim (from OpenFAST--128-NOTFOUND)


  Reading the input file "./turbsim/TurbSim_17.inp".
  WARNING:   The random number generator in use differs from the original code provided by NREL.
  This pRNG uses 8 seeds instead of the 2 in the TurbSim input file.
  WARNING:   The random number generator in use differs from the original code provided by NREL.
  This pRNG uses 8 seeds instead of the 2 in the TurbSim input file.
  Calculating the spectral and transfer function matrices:
     u-component matrices (IEC coherence method)
     v-component matrices (identity coherence)
     w-component matrices (identity coherence)
  Generating time series for all points:
     u-component
     v-component
     w-component
  Computing hub-height statistics
  Writing statistics to summary file
  Hub-height AeroDyn data were written to "./turbsim/TurbSim_17.hh"

  Processing complete.  0.79356 CPU seconds used.

  TurbSim terminated normally.


 **************************************************************************************************
 TurbSim

 Copyright (C) 2023 National Renewable Energy Laboratory
 Copyright (C) 2023 Envision Energy USA LTD

 This program is licensed under Apache License Version 2.0 and comes with ABSOLUTELY NO WARRANTY.
 See the "LICENSE" file distributed with this software for details.
 **************************************************************************************************

  Running TurbSim (from OpenFAST--128-NOTFOUND)


  Reading the input file "./turbsim/TurbSim_17.inp".
  WARNING:   The random number generator in use differs from the original code provided by NREL.
  This pRNG uses 8 seeds instead of the 2 in the TurbSim input file.
  WARNING:   The random number generator in use differs from the original code provided by NREL.
  This pRNG uses 8 seeds instead of the 2 in the TurbSim input file.
  Calculating the spectral and transfer function matrices:
     u-component matrices (IEC coherence method)
     v-component matrices (identity coherence)
     w-component matrices (identity coherence)
  Generating time series for all points:
     u-component
     v-component
     w-component
  Computing hub-height statistics
  Writing statistics to summary file
  Hub-height AeroDyn data were written to "./turbsim/TurbSim_17.hh"

  Processing complete.  0.80205 CPU seconds used.

  TurbSim terminated normally.


 **************************************************************************************************
 TurbSim

 Copyright (C) 2023 National Renewable Energy Laboratory
 Copyright (C) 2023 Envision Energy USA LTD

 This program is licensed under Apache License Version 2.0 and comes with ABSOLUTELY NO WARRANTY.
 See the "LICENSE" file distributed with this software for details.
 **************************************************************************************************

  Running TurbSim (from OpenFAST--128-NOTFOUND)


  Reading the input file "./turbsim/TurbSim_17.inp".
  WARNING:   The random number generator in use differs from the original code provided by NREL.
  This pRNG uses 8 seeds instead of the 2 in the TurbSim input file.
  WARNING:   The random number generator in use differs from the original code provided by NREL.
  This pRNG uses 8 seeds instead of the 2 in the TurbSim input file.
  Calculating the spectral and transfer function matrices:
     u-component matrices (IEC coherence method)
     v-component matrices (identity coherence)
     w-component matrices (identity coherence)
  Generating time series for all points:
     u-component
     v-component
     w-component
  Computing hub-height statistics
  Writing statistics to summary file
  Hub-height AeroDyn data were written to "./turbsim/TurbSim_17.hh"

  Processing complete.  0.79856 CPU seconds used.

  TurbSim terminated normally.


 **************************************************************************************************
 TurbSim

 Copyright (C) 2023 National Renewable Energy Laboratory
 Copyright (C) 2023 Envision Energy USA LTD

 This program is licensed under Apache License Version 2.0 and comes with ABSOLUTELY NO WARRANTY.
 See the "LICENSE" file distributed with this software for details.
 **************************************************************************************************

  Running TurbSim (from OpenFAST--128-NOTFOUND)


  Reading the input file "./turbsim/TurbSim_17.inp".
  WARNING:   The random number generator in use differs from the original code provided by NREL.
  This pRNG uses 8 seeds instead of the 2 in the TurbSim input file.
  WARNING:   The random number generator in use differs from the original code provided by NREL.
  This pRNG uses 8 seeds instead of the 2 in the TurbSim input file.
  Calculating the spectral and transfer function matrices:
     u-component matrices (IEC coherence method)
     v-component matrices (identity coherence)
     w-component matrices (identity coherence)
  Generating time series for all points:
     u-component
     v-component
     w-component
  Computing hub-height statistics
  Writing statistics to summary file
  Hub-height AeroDyn data were written to "./turbsim/TurbSim_17.hh"

  Processing complete.  0.79141 CPU seconds used.

  TurbSim terminated normally.


 **************************************************************************************************
 TurbSim

 Copyright (C) 2023 National Renewable Energy Laboratory
 Copyright (C) 2023 Envision Energy USA LTD

 This program is licensed under Apache License Version 2.0 and comes with ABSOLUTELY NO WARRANTY.
 See the "LICENSE" file distributed with this software for details.
 **************************************************************************************************

  Running TurbSim (from OpenFAST--128-NOTFOUND)


  Reading the input file "./turbsim/TurbSim_17.inp".
  WARNING:   The random number generator in use differs from the original code provided by NREL.
  This pRNG uses 8 seeds instead of the 2 in the TurbSim input file.
  WARNING:   The random number generator in use differs from the original code provided by NREL.
  This pRNG uses 8 seeds instead of the 2 in the TurbSim input file.
  Calculating the spectral and transfer function matrices:
     u-component matrices (IEC coherence method)
     v-component matrices (identity coherence)
     w-component matrices (identity coherence)
  Generating time series for all points:
     u-component
     v-component
     w-component
  Computing hub-height statistics
  Writing statistics to summary file
  Hub-height AeroDyn data were written to "./turbsim/TurbSim_17.hh"

  Processing complete.  0.79043 CPU seconds used.

  TurbSim terminated normally.


 **************************************************************************************************
 TurbSim

 Copyright (C) 2023 National Renewable Energy Laboratory
 Copyright (C) 2023 Envision Energy USA LTD

 This program is licensed under Apache License Version 2.0 and comes with ABSOLUTELY NO WARRANTY.
 See the "LICENSE" file distributed with this software for details.
 **************************************************************************************************

  Running TurbSim (from OpenFAST--128-NOTFOUND)


  Reading the input file "./turbsim/TurbSim_17.inp".
  WARNING:   The random number generator in use differs from the original code provided by NREL.
  This pRNG uses 8 seeds instead of the 2 in the TurbSim input file.
  WARNING:   The random number generator in use differs from the original code provided by NREL.
  This pRNG uses 8 seeds instead of the 2 in the TurbSim input file.
  Calculating the spectral and transfer function matrices:
     u-component matrices (IEC coherence method)
     v-component matrices (identity coherence)
     w-component matrices (identity coherence)
  Generating time series for all points:
     u-component
     v-component
     w-component
  Computing hub-height statistics
  Writing statistics to summary file
  Hub-height AeroDyn data were written to "./turbsim/TurbSim_17.hh"

  Processing complete.  0.79566 CPU seconds used.

  TurbSim terminated normally.


 **************************************************************************************************
 TurbSim

 Copyright (C) 2023 National Renewable Energy Laboratory
 Copyright (C) 2023 Envision Energy USA LTD

 This program is licensed under Apache License Version 2.0 and comes with ABSOLUTELY NO WARRANTY.
 See the "LICENSE" file distributed with this software for details.
 **************************************************************************************************

  Running TurbSim (from OpenFAST--128-NOTFOUND)


  Reading the input file "./turbsim/TurbSim_17.inp".
  WARNING:   The random number generator in use differs from the original code provided by NREL.
  This pRNG uses 8 seeds instead of the 2 in the TurbSim input file.
  WARNING:   The random number generator in use differs from the original code provided by NREL.
  This pRNG uses 8 seeds instead of the 2 in the TurbSim input file.
  Calculating the spectral and transfer function matrices:
     u-component matrices (IEC coherence method)
     v-component matrices (identity coherence)
     w-component matrices (identity coherence)
  Generating time series for all points:
     u-component
     v-component
     w-component
  Computing hub-height statistics
  Writing statistics to summary file
  Hub-height AeroDyn data were written to "./turbsim/TurbSim_17.hh"

  Processing complete.  0.79061 CPU seconds used.

  TurbSim terminated normally.


 **************************************************************************************************
 TurbSim

 Copyright (C) 2023 National Renewable Energy Laboratory
 Copyright (C) 2023 Envision Energy USA LTD

 This program is licensed under Apache License Version 2.0 and comes with ABSOLUTELY NO WARRANTY.
 See the "LICENSE" file distributed with this software for details.
 **************************************************************************************************

  Running TurbSim (from OpenFAST--128-NOTFOUND)


  Reading the input file "./turbsim/TurbSim_17.inp".
  WARNING:   The random number generator in use differs from the original code provided by NREL.
  This pRNG uses 8 seeds instead of the 2 in the TurbSim input file.
  WARNING:   The random number generator in use differs from the original code provided by NREL.
  This pRNG uses 8 seeds instead of the 2 in the TurbSim input file.
  Calculating the spectral and transfer function matrices:
     u-component matrices (IEC coherence method)
     v-component matrices (identity coherence)
     w-component matrices (identity coherence)
  Generating time series for all points:
     u-component
     v-component
     w-component
  Computing hub-height statistics
  Writing statistics to summary file
  Hub-height AeroDyn data were written to "./turbsim/TurbSim_17.hh"

  Processing complete.  0.78679 CPU seconds used.

  TurbSim terminated normally.


 **************************************************************************************************
 TurbSim

 Copyright (C) 2023 National Renewable Energy Laboratory
 Copyright (C) 2023 Envision Energy USA LTD

 This program is licensed under Apache License Version 2.0 and comes with ABSOLUTELY NO WARRANTY.
 See the "LICENSE" file distributed with this software for details.
 **************************************************************************************************

  Running TurbSim (from OpenFAST--128-NOTFOUND)


  Reading the input file "./turbsim/TurbSim_17.inp".
  WARNING:   The random number generator in use differs from the original code provided by NREL.
  This pRNG uses 8 seeds instead of the 2 in the TurbSim input file.
  WARNING:   The random number generator in use differs from the original code provided by NREL.
  This pRNG uses 8 seeds instead of the 2 in the TurbSim input file.
  Calculating the spectral and transfer function matrices:
     u-component matrices (IEC coherence method)
     v-component matrices (identity coherence)
     w-component matrices (identity coherence)
  Generating time series for all points:
     u-component
     v-component
     w-component
  Computing hub-height statistics
  Writing statistics to summary file
  Hub-height AeroDyn data were written to "./turbsim/TurbSim_17.hh"

  Processing complete.  0.79874 CPU seconds used.

  TurbSim terminated normally.


 **************************************************************************************************
 TurbSim

 Copyright (C) 2023 National Renewable Energy Laboratory
 Copyright (C) 2023 Envision Energy USA LTD

 This program is licensed under Apache License Version 2.0 and comes with ABSOLUTELY NO WARRANTY.
 See the "LICENSE" file distributed with this software for details.
 **************************************************************************************************

  Running TurbSim (from OpenFAST--128-NOTFOUND)


  Reading the input file "./turbsim/TurbSim_17.inp".
  WARNING:   The random number generator in use differs from the original code provided by NREL.
  This pRNG uses 8 seeds instead of the 2 in the TurbSim input file.
  WARNING:   The random number generator in use differs from the original code provided by NREL.
  This pRNG uses 8 seeds instead of the 2 in the TurbSim input file.
  Calculating the spectral and transfer function matrices:
     u-component matrices (IEC coherence method)
     v-component matrices (identity coherence)
     w-component matrices (identity coherence)
  Generating time series for all points:
     u-component
     v-component
     w-component
  Computing hub-height statistics
  Writing statistics to summary file
  Hub-height AeroDyn data were written to "./turbsim/TurbSim_17.hh"

  Processing complete.  0.80424 CPU seconds used.

  TurbSim terminated normally.


 **************************************************************************************************
 TurbSim

 Copyright (C) 2023 National Renewable Energy Laboratory
 Copyright (C) 2023 Envision Energy USA LTD

 This program is licensed under Apache License Version 2.0 and comes with ABSOLUTELY NO WARRANTY.
 See the "LICENSE" file distributed with this software for details.
 **************************************************************************************************

  Running TurbSim (from OpenFAST--128-NOTFOUND)


  Reading the input file "./turbsim/TurbSim_17.inp".
  WARNING:   The random number generator in use differs from the original code provided by NREL.
  This pRNG uses 8 seeds instead of the 2 in the TurbSim input file.
  WARNING:   The random number generator in use differs from the original code provided by NREL.
  This pRNG uses 8 seeds instead of the 2 in the TurbSim input file.
  Calculating the spectral and transfer function matrices:
     u-component matrices (IEC coherence method)
     v-component matrices (identity coherence)
     w-component matrices (identity coherence)
  Generating time series for all points:
     u-component
     v-component
     w-component
  Computing hub-height statistics
  Writing statistics to summary file
  Hub-height AeroDyn data were written to "./turbsim/TurbSim_17.hh"

  Processing complete.  0.78529 CPU seconds used.

  TurbSim terminated normally.

