
This summary file was generated by TurbSim (from OpenFAST--128-NOTFOUND) on 04-Nov-2023 at 12:07:53.


Runtime Options:

**********  Random seed #1
1363511765  Random seed #2
         F  Output binary HH turbulence parameters?
         F  Output formatted turbulence parameters?
         T  Output AeroDyn HH files?
         F  Output AeroDyn FF files?
         F  Output BLADED FF files?
         F  Output tower data?
         F  Output HAWC FF files?
         F  Output formatted FF files?
         F  Output coherent turbulence time step file?
 0 -  NONE  IEC turbulence models scaled to exact specified standard deviation


Turbine/Model Specifications:

         5  Vertical grid-point matrix dimension
         5  Horizontal grid-point matrix dimension
     0.050  Time step [seconds]
  3001.000  Analysis time [seconds]
  3001.000  Usable output time [seconds]
    90.000  Hub height [m]
   162.000  Grid height [m]
   162.000  Grid width [m]
     0.000  Vertical flow angle [degrees]
     0.000  Horizontal flow angle [degrees]


Meteorological Boundary Conditions:

    IECVKM  IEC von Karman spectral model
         1  IEC standard: IEC 61400-1 Ed. 3: 2005
         B  IEC turbulence characteristic
       NTM  IEC Normal Turbulence Model
       N/A  IEC Extreme Turbulence Model (ETM) "c" parameter [m/s]
       PL   Wind profile type
    90.000  Reference height [m]
    20.000  Reference wind speed [m/s]
       N/A  Jet height [m]
     0.200  Power law exponent
     0.030  Surface roughness length [m]


Non-IEC Meteorological Boundary Conditions:

       N/A  Site latitude [degrees]
       N/A  Gradient Richardson number
       N/A  Friction or shear velocity [m/s]
       N/A  Mixing layer depth [m]
       N/A  Mean hub u'w' Reynolds stress
       N/A  Mean hub u'v' Reynolds stress
       N/A  Mean hub v'w' Reynolds stress


Spatial Coherence Models:

       IEC  u-component coherence model
      NONE  v-component coherence model
      NONE  w-component coherence model
(   12.000, 0.353E-03)  u-component coherence parameters
                   N/A  v-component coherence parameters
                   N/A  w-component coherence parameters
       N/A  Coherence exponent


You have requested that the following file(s) be generated:

   TurbSim.hh  (AeroDyn hub-height file)


Turbulence Simulation Scaling Parameter Summary:

   Turbulence model used                            =  IEC von Karman
   Turbulence characteristic                        =  B
   IEC turbulence type                              =  Normal Turbulence Model
   IEC standard                                     =  IEC 61400-1 Ed. 3: 2005
   Mean wind speed at hub height                    =   20.000 m/s
   Expected value of turbulence intensity at 15 m/s =   14.000%
   Characteristic value of standard deviation       =    2.884 m/s
   Turbulence scale                                 =   42.000 m
   Isotropic integral scale                         =  147.000 m
   Characteristic value of hub turbulence intensity =   14.420%
   Gradient Richardson number                       =    0.000

   Wind profile type                                =  Power law
   Power law exponent                               =    0.200
   Mean shear across rotor disk                     =    0.062 (m/s)/m
   Assumed rotor diameter                           =  162.000 m
   Surface roughness length                         =    0.030 m

   Nyquist frequency of turbulent wind field        =   10.000 Hz

   Number of time steps in the FFT                  =    60060
   Number of time steps output                      =    60060
   Number of points simulated                       =       25


Mean Flow Angles:

   Vertical   =   0.0 degrees
   Horizontal =   0.0 degrees

Mean Wind Speed Profile:

   Height    Wind Speed   Horizontal Angle  Vertical Angle  U-comp (X)   V-comp (Y)   W-comp (Z)
     (m)        (m/s)         (degrees)       (degrees)       (m/s)        (m/s)        (m/s)   
   ------    ----------   ----------------  --------------  ----------   ----------   ----------
    171.0       22.74            0.00            0.00         22.74         0.00         0.00
    130.5       21.54            0.00            0.00         21.54         0.00         0.00
     90.0       20.00            0.00            0.00         20.00         0.00         0.00
     49.5       17.75            0.00            0.00         17.75         0.00         0.00
      9.0       12.62            0.00            0.00         12.62         0.00         0.00


Harvested Random Seeds after Generation of the Random Numbers:

  -1441538072 Harvested seed # 1
   1671373825 Harvested seed # 2
   1421041692 Harvested seed # 3
    572953780 Harvested seed # 4
    439480664 Harvested seed # 5
    599911115 Harvested seed # 6
   1711107846 Harvested seed # 7
   1137766539 Harvested seed # 8


Hub-Height Simulated Turbulence Statistical Summary:

   Type of Wind        Min (m/s)   Mean (m/s)    Max (m/s)  Sigma (m/s)       TI (%)
   ----------------    ---------   ----------    ---------  -----------       ------
   Longitudinal (u)        10.07        20.00        31.44        2.917       14.583
   Lateral (v)            -12.46        -0.00        10.34        2.857       14.286
   Vertical (w)           -10.80         0.00        11.67        2.857       14.286
   U component             10.07        20.00        31.44        2.917       14.583
   V component            -12.46        -0.00        10.34        2.857       14.286
   W component            -10.80         0.00        11.67        2.857       14.286
   Horizontal (U&V)        10.13        20.21        31.66        2.895       14.329
   Total                   10.13        20.41        31.78        2.882       14.122

                       Min Reynolds     Mean Reynolds    Max Reynolds    Correlation
   Product             Stress (m/s)^2   Stress (m/s)^2   Stress (m/s)^2  Coefficient
   ----------------    --------------   --------------   --------------  -----------
   u'w'                    -54.904             0.368            56.523         0.044
   u'v'                    -80.444             0.054            63.903         0.006
   v'w'                    -70.243             0.587            92.744         0.072


   Friction Velocity (Ustar)  =      0.607 m/s
   Maximum Instantaneous TKE  =    100.059 (m/s)^2
   Maximum Instantaneous CTKE =     47.461 (m/s)^2


Grid Point Variance Summary:

   Y-coord  -81.00  -40.50    0.00   40.50   81.00

   Height   Standard deviation at grid points for the u component:
   171.00    2.849   2.983   2.926   2.945   2.978
   130.50    2.901   2.989   3.039   2.894   2.982
    90.00    2.976   2.913   2.917   3.005   2.972
    49.50    3.013   2.942   3.000   2.979   2.980
     9.00    2.860   2.902   2.908   2.933   2.911

   Height   Standard deviation at grid points for the v component:
   171.00    2.857   2.857   2.857   2.857   2.857
   130.50    2.857   2.857   2.857   2.857   2.857
    90.00    2.857   2.857   2.857   2.857   2.857
    49.50    2.857   2.857   2.857   2.857   2.857
     9.00    2.857   2.857   2.857   2.857   2.857

   Height   Standard deviation at grid points for the w component:
   171.00    2.857   2.857   2.857   2.857   2.857
   130.50    2.857   2.857   2.857   2.857   2.857
    90.00    2.857   2.857   2.857   2.857   2.857
    49.50    2.857   2.857   2.857   2.857   2.857
     9.00    2.857   2.857   2.857   2.857   2.857

   Mean standard deviation across all grid points:
      u component:    2.948 m/s
      v component:    2.857 m/s
      w component:    2.857 m/s


Processing complete.  0.98617 CPU seconds used.
