
This summary file was generated by TurbSim (from OpenFAST--128-NOTFOUND) on 04-Nov-2023 at 13:15:43.


Runtime Options:

 163203302  Random seed #1
-812798221  Random seed #2
         F  Output binary HH turbulence parameters?
         F  Output formatted turbulence parameters?
         T  Output AeroDyn HH files?
         F  Output AeroDyn FF files?
         F  Output BLADED FF files?
         F  Output tower data?
         F  Output HAWC FF files?
         F  Output formatted FF files?
         F  Output coherent turbulence time step file?
 0 -  NONE  IEC turbulence models scaled to exact specified standard deviation


Turbine/Model Specifications:

         5  Vertical grid-point matrix dimension
         5  Horizontal grid-point matrix dimension
     0.050  Time step [seconds]
  3001.000  Analysis time [seconds]
  3001.000  Usable output time [seconds]
    90.000  Hub height [m]
   162.000  Grid height [m]
   162.000  Grid width [m]
     0.000  Vertical flow angle [degrees]
     0.000  Horizontal flow angle [degrees]


Meteorological Boundary Conditions:

    IECVKM  IEC von Karman spectral model
         1  IEC standard: IEC 61400-1 Ed. 3: 2005
         B  IEC turbulence characteristic
       NTM  IEC Normal Turbulence Model
       N/A  IEC Extreme Turbulence Model (ETM) "c" parameter [m/s]
       PL   Wind profile type
    90.000  Reference height [m]
    20.000  Reference wind speed [m/s]
       N/A  Jet height [m]
     0.200  Power law exponent
     0.030  Surface roughness length [m]


Non-IEC Meteorological Boundary Conditions:

       N/A  Site latitude [degrees]
       N/A  Gradient Richardson number
       N/A  Friction or shear velocity [m/s]
       N/A  Mixing layer depth [m]
       N/A  Mean hub u'w' Reynolds stress
       N/A  Mean hub u'v' Reynolds stress
       N/A  Mean hub v'w' Reynolds stress


Spatial Coherence Models:

       IEC  u-component coherence model
      NONE  v-component coherence model
      NONE  w-component coherence model
(   12.000, 0.353E-03)  u-component coherence parameters
                   N/A  v-component coherence parameters
                   N/A  w-component coherence parameters
       N/A  Coherence exponent


You have requested that the following file(s) be generated:

   TurbSim.hh  (AeroDyn hub-height file)


Turbulence Simulation Scaling Parameter Summary:

   Turbulence model used                            =  IEC von Karman
   Turbulence characteristic                        =  B
   IEC turbulence type                              =  Normal Turbulence Model
   IEC standard                                     =  IEC 61400-1 Ed. 3: 2005
   Mean wind speed at hub height                    =   20.000 m/s
   Expected value of turbulence intensity at 15 m/s =   14.000%
   Characteristic value of standard deviation       =    2.884 m/s
   Turbulence scale                                 =   42.000 m
   Isotropic integral scale                         =  147.000 m
   Characteristic value of hub turbulence intensity =   14.420%
   Gradient Richardson number                       =    0.000

   Wind profile type                                =  Power law
   Power law exponent                               =    0.200
   Mean shear across rotor disk                     =    0.062 (m/s)/m
   Assumed rotor diameter                           =  162.000 m
   Surface roughness length                         =    0.030 m

   Nyquist frequency of turbulent wind field        =   10.000 Hz

   Number of time steps in the FFT                  =    60060
   Number of time steps output                      =    60060
   Number of points simulated                       =       25


Mean Flow Angles:

   Vertical   =   0.0 degrees
   Horizontal =   0.0 degrees

Mean Wind Speed Profile:

   Height    Wind Speed   Horizontal Angle  Vertical Angle  U-comp (X)   V-comp (Y)   W-comp (Z)
     (m)        (m/s)         (degrees)       (degrees)       (m/s)        (m/s)        (m/s)   
   ------    ----------   ----------------  --------------  ----------   ----------   ----------
    171.0       22.74            0.00            0.00         22.74         0.00         0.00
    130.5       21.54            0.00            0.00         21.54         0.00         0.00
     90.0       20.00            0.00            0.00         20.00         0.00         0.00
     49.5       17.75            0.00            0.00         17.75         0.00         0.00
      9.0       12.62            0.00            0.00         12.62         0.00         0.00


Harvested Random Seeds after Generation of the Random Numbers:

   1670715014 Harvested seed # 1
    488912543 Harvested seed # 2
    436391274 Harvested seed # 3
   -549149491 Harvested seed # 4
   1763696266 Harvested seed # 5
  -1046579004 Harvested seed # 6
    957455606 Harvested seed # 7
   -668480038 Harvested seed # 8


Hub-Height Simulated Turbulence Statistical Summary:

   Type of Wind        Min (m/s)   Mean (m/s)    Max (m/s)  Sigma (m/s)       TI (%)
   ----------------    ---------   ----------    ---------  -----------       ------
   Longitudinal (u)         8.36        20.00        28.70        2.868       14.340
   Lateral (v)            -10.35        -0.00        10.59        2.857       14.286
   Vertical (w)           -11.64        -0.00        12.77        2.857       14.286
   U component              8.36        20.00        28.70        2.868       14.340
   V component            -10.35        -0.00        10.59        2.857       14.286
   W component            -11.64        -0.00        12.77        2.857       14.286
   Horizontal (U&V)         8.70        20.21        28.83        2.840       14.055
   Total                    8.80        20.41        28.91        2.830       13.864

                       Min Reynolds     Mean Reynolds    Max Reynolds    Correlation
   Product             Stress (m/s)^2   Stress (m/s)^2   Stress (m/s)^2  Coefficient
   ----------------    --------------   --------------   --------------  -----------
   u'w'                    -65.104            -0.207            53.909        -0.025
   u'v'                    -66.508            -0.071            65.396        -0.009
   v'w'                    -43.880             0.219            60.559         0.027


   Friction Velocity (Ustar)  =      0.455 m/s
   Maximum Instantaneous TKE  =     84.040 (m/s)^2
   Maximum Instantaneous CTKE =     36.460 (m/s)^2


Grid Point Variance Summary:

   Y-coord  -81.00  -40.50    0.00   40.50   81.00

   Height   Standard deviation at grid points for the u component:
   171.00    2.864   2.856   2.891   2.873   2.975
   130.50    2.776   2.791   2.830   2.979   2.940
    90.00    2.764   2.806   2.868   2.916   2.890
    49.50    2.913   2.857   2.862   2.839   2.903
     9.00    2.860   2.795   2.766   2.889   2.897

   Height   Standard deviation at grid points for the v component:
   171.00    2.857   2.857   2.857   2.857   2.857
   130.50    2.857   2.857   2.857   2.857   2.857
    90.00    2.857   2.857   2.857   2.857   2.857
    49.50    2.857   2.857   2.857   2.857   2.857
     9.00    2.857   2.857   2.857   2.857   2.857

   Height   Standard deviation at grid points for the w component:
   171.00    2.857   2.857   2.857   2.857   2.857
   130.50    2.857   2.857   2.857   2.857   2.857
    90.00    2.857   2.857   2.857   2.857   2.857
    49.50    2.857   2.857   2.857   2.857   2.857
     9.00    2.857   2.857   2.857   2.857   2.857

   Mean standard deviation across all grid points:
      u component:    2.864 m/s
      v component:    2.857 m/s
      w component:    2.857 m/s


Processing complete.  0.97537 CPU seconds used.
