
This summary file was generated by TurbSim (from OpenFAST--128-NOTFOUND) on 18-Aug-2023 at 23:58:25.


Runtime Options:

 497253750  Random seed #1
1126104171  Random seed #2
         F  Output binary HH turbulence parameters?
         F  Output formatted turbulence parameters?
         T  Output AeroDyn HH files?
         F  Output AeroDyn FF files?
         F  Output BLADED FF files?
         F  Output tower data?
         F  Output HAWC FF files?
         F  Output formatted FF files?
         F  Output coherent turbulence time step file?
 0 -  NONE  IEC turbulence models scaled to exact specified standard deviation


Turbine/Model Specifications:

         5  Vertical grid-point matrix dimension
         5  Horizontal grid-point matrix dimension
     0.010  Time step [seconds]
   600.000  Analysis time [seconds]
   600.000  Usable output time [seconds]
    90.000  Hub height [m]
   162.000  Grid height [m]
   162.000  Grid width [m]
     0.000  Vertical flow angle [degrees]
     0.000  Horizontal flow angle [degrees]


Meteorological Boundary Conditions:

    IECVKM  IEC von Karman spectral model
         1  IEC standard: IEC 61400-1 Ed. 3: 2005
         B  IEC turbulence characteristic
       NTM  IEC Normal Turbulence Model
       N/A  IEC Extreme Turbulence Model (ETM) "c" parameter [m/s]
       PL   Wind profile type
    90.000  Reference height [m]
    20.000  Reference wind speed [m/s]
       N/A  Jet height [m]
     0.200  Power law exponent
     0.030  Surface roughness length [m]


Non-IEC Meteorological Boundary Conditions:

       N/A  Site latitude [degrees]
       N/A  Gradient Richardson number
       N/A  Friction or shear velocity [m/s]
       N/A  Mixing layer depth [m]
       N/A  Mean hub u'w' Reynolds stress
       N/A  Mean hub u'v' Reynolds stress
       N/A  Mean hub v'w' Reynolds stress


Spatial Coherence Models:

       IEC  u-component coherence model
      NONE  v-component coherence model
      NONE  w-component coherence model
(   12.000, 0.353E-03)  u-component coherence parameters
                   N/A  v-component coherence parameters
                   N/A  w-component coherence parameters
       N/A  Coherence exponent


You have requested that the following file(s) be generated:

   ./TurbSim.hh  (AeroDyn hub-height file)


Turbulence Simulation Scaling Parameter Summary:

   Turbulence model used                            =  IEC von Karman
   Turbulence characteristic                        =  B
   IEC turbulence type                              =  Normal Turbulence Model
   IEC standard                                     =  IEC 61400-1 Ed. 3: 2005
   Mean wind speed at hub height                    =   20.000 m/s
   Expected value of turbulence intensity at 15 m/s =   14.000%
   Characteristic value of standard deviation       =    2.884 m/s
   Turbulence scale                                 =   42.000 m
   Isotropic integral scale                         =  147.000 m
   Characteristic value of hub turbulence intensity =   14.420%
   Gradient Richardson number                       =    0.000

   Wind profile type                                =  Power law
   Power law exponent                               =    0.200
   Mean shear across rotor disk                     =    0.062 (m/s)/m
   Assumed rotor diameter                           =  162.000 m
   Surface roughness length                         =    0.030 m

   Nyquist frequency of turbulent wind field        =   50.000 Hz

   Number of time steps in the FFT                  =    60000
   Number of time steps output                      =    60000
   Number of points simulated                       =       25


Mean Flow Angles:

   Vertical   =   0.0 degrees
   Horizontal =   0.0 degrees

Mean Wind Speed Profile:

   Height    Wind Speed   Horizontal Angle  Vertical Angle  U-comp (X)   V-comp (Y)   W-comp (Z)
     (m)        (m/s)         (degrees)       (degrees)       (m/s)        (m/s)        (m/s)   
   ------    ----------   ----------------  --------------  ----------   ----------   ----------
    171.0       22.74            0.00            0.00         22.74         0.00         0.00
    130.5       21.54            0.00            0.00         21.54         0.00         0.00
